FoamFile
{
    version 2.0;
    format ascii;
    class dictionary;
    object blockMeshDict;
}

convertToMeters 0.001;

vertices
(
    (-0.086603 0.050000 0.000000)
    (-0.088114 0.050873 0.000000)
    (-0.089652 0.051761 0.000000)
    (-0.091217 0.052664 0.000000)
    (-0.092809 0.053583 0.000000)
    (-0.094428 0.054518 0.000000)
    (-0.096077 0.055470 0.000000)
    (-0.097753 0.056438 0.000000)
    (-0.099460 0.057423 0.000000)
    (-0.101195 0.058425 0.000000)
    (-0.102962 0.059445 0.000000)
    (-0.104759 0.060482 0.000000)
    (-0.106587 0.061538 0.000000)
    (-0.108447 0.062612 0.000000)
    (-0.110340 0.063705 0.000000)
    (-0.112266 0.064817 0.000000)
    (-0.114225 0.065948 0.000000)
    (-0.116219 0.067099 0.000000)
    (-0.118247 0.068270 0.000000)
    (-0.120311 0.069462 0.000000)
    (-0.122411 0.070674 0.000000)
    (-0.124547 0.071907 0.000000)
    (-0.126721 0.073163 0.000000)
    (-0.128933 0.074439 0.000000)
    (-0.131183 0.075739 0.000000)
    (-0.133473 0.077061 0.000000)
    (-0.135802 0.078405 0.000000)
    (-0.138173 0.079774 0.000000)
    (-0.140584 0.081166 0.000000)
    (-0.143038 0.082583 0.000000)
    (-0.145534 0.084024 0.000000)
    (-0.148074 0.085491 0.000000)
    (-0.150659 0.086983 0.000000)
    (-0.153288 0.088501 0.000000)
    (-0.155964 0.090046 0.000000)
    (-0.158686 0.091617 0.000000)
    (-0.161455 0.093216 0.000000)
    (-0.164273 0.094843 0.000000)
    (-0.167140 0.096498 0.000000)
    (-0.170057 0.098183 0.000000)
    (-0.173025 0.099896 0.000000)
    (-0.176045 0.101640 0.000000)
    (-0.179118 0.103414 0.000000)
    (-0.182244 0.105219 0.000000)
    (-0.185425 0.107055 0.000000)
    (-0.188661 0.108924 0.000000)
    (-0.191954 0.110825 0.000000)
    (-0.195304 0.112759 0.000000)
    (-0.198713 0.114727 0.000000)
    (-0.202181 0.116729 0.000000)
    (-0.205710 0.118767 0.000000)
    (-0.209300 0.120839 0.000000)
    (-0.212953 0.122948 0.000000)
    (-0.216670 0.125094 0.000000)
    (-0.220451 0.127278 0.000000)
    (-0.224299 0.129499 0.000000)
    (-0.228214 0.131759 0.000000)
    (-0.232197 0.134059 0.000000)
    (-0.236249 0.136399 0.000000)
    (-0.240373 0.138779 0.000000)
    (-0.244568 0.141201 0.000000)
    (-0.248836 0.143666 0.000000)
    (-0.253179 0.146173 0.000000)
    (-0.257598 0.148724 0.000000)
    (-0.262094 0.151320 0.000000)
    (-0.266669 0.153961 0.000000)
    (-0.271323 0.156648 0.000000)
    (-0.276058 0.159382 0.000000)
    (-0.280876 0.162164 0.000000)
    (-0.285779 0.164994 0.000000)
    (-0.290766 0.167874 0.000000)
    (-0.295841 0.170804 0.000000)
    (-0.301005 0.173785 0.000000)
    (-0.306258 0.176818 0.000000)
    (-0.311603 0.179904 0.000000)
    (-0.317042 0.183044 0.000000)
    (-0.322575 0.186239 0.000000)
    (-0.328205 0.189489 0.000000)
    (-0.333934 0.192797 0.000000)
    (-0.339762 0.196162 0.000000)
    (-0.345692 0.199585 0.000000)
    (-0.351725 0.203069 0.000000)
    (-0.357864 0.206613 0.000000)
    (-0.364110 0.210219 0.000000)
    (-0.370465 0.213888 0.000000)
    (-0.376931 0.217621 0.000000)
    (-0.383509 0.221419 0.000000)
    (-0.390203 0.225284 0.000000)
    (-0.397013 0.229216 0.000000)
    (-0.403942 0.233216 0.000000)
    (-0.410993 0.237287 0.000000)
    (-0.418166 0.241428 0.000000)
    (-0.425464 0.245642 0.000000)
    (-0.432890 0.249929 0.000000)
    (-0.440445 0.254291 0.000000)
    (-0.448132 0.258729 0.000000)
    (-0.455954 0.263245 0.000000)
    (-0.463912 0.267840 0.000000)
    (-0.472009 0.272514 0.000000)
    (-0.480247 0.277271 0.000000)
    (-0.488628 0.282110 0.000000)
    (-0.497157 0.287034 0.000000)
    (-0.505834 0.292043 0.000000)
    (-0.514662 0.297140 0.000000)
    (-0.523645 0.302326 0.000000)
    (-0.532784 0.307603 0.000000)
    (-0.542083 0.312972 0.000000)
    (-0.551544 0.318434 0.000000)
    (-0.561170 0.323992 0.000000)
    (-0.570965 0.329647 0.000000)
    (-0.580930 0.335400 0.000000)
    (-0.591069 0.341254 0.000000)
    (-0.601385 0.347210 0.000000)
    (-0.611881 0.353270 0.000000)
    (-0.622560 0.359435 0.000000)
    (-0.633426 0.365709 0.000000)
    (-0.644482 0.372092 0.000000)
    (-0.655730 0.378586 0.000000)
    (-0.667175 0.385193 0.000000)
    (-0.678819 0.391916 0.000000)
    (-0.690667 0.398757 0.000000)
    (-0.702721 0.405716 0.000000)
    (-0.714986 0.412797 0.000000)
    (-0.727465 0.420002 0.000000)
    (-0.740161 0.427332 0.000000)
    (-0.753079 0.434791 0.000000)
    (-0.766223 0.442379 0.000000)
    (-0.779596 0.450100 0.000000)
    (-0.793203 0.457956 0.000000)
    (-0.807047 0.465949 0.000000)
    (-0.821132 0.474081 0.000000)
    (-0.835464 0.482355 0.000000)
    (-0.850046 0.490774 0.000000)
    (-0.864882 0.499340 0.000000)
    (-0.879977 0.508055 0.000000)
    (-0.895335 0.516922 0.000000)
    (-0.910962 0.525944 0.000000)
    (-0.926861 0.535123 0.000000)
    (-0.943038 0.544463 0.000000)
    (-0.959497 0.553966 0.000000)
    (-0.976243 0.563634 0.000000)
    (-0.993282 0.573472 0.000000)
    (-1.010618 0.583481 0.000000)
    (-1.028257 0.593664 0.000000)
    (-1.046203 0.604026 0.000000)
    (-1.064463 0.614568 0.000000)
    (-1.083041 0.625294 0.000000)
    (-1.101944 0.636208 0.000000)
    (-1.121176 0.647311 0.000000)
    (-1.140744 0.658609 0.000000)
    (-1.160654 0.670104 0.000000)
    (-1.180911 0.681800 0.000000)
    (-1.201522 0.693699 0.000000)
    (-1.222493 0.705807 0.000000)
    (-1.243829 0.718125 0.000000)
    (-1.265538 0.730659 0.000000)
    (-1.287626 0.743411 0.000000)
    (-1.310099 0.756386 0.000000)
    (-1.332965 0.769588 0.000000)
    (-1.356230 0.783019 0.000000)
    (-1.379900 0.796686 0.000000)
    (-1.403984 0.810591 0.000000)
    (-1.428488 0.824738 0.000000)
    (-1.453420 0.839132 0.000000)
    (-1.478787 0.853778 0.000000)
    (-1.504597 0.868679 0.000000)
    (-1.530857 0.883841 0.000000)
    (-1.557575 0.899267 0.000000)
    (-1.584760 0.914962 0.000000)
    (-1.612419 0.930931 0.000000)
    (-1.640561 0.947179 0.000000)
    (-1.669195 0.963710 0.000000)
    (-1.698328 0.980530 0.000000)
    (-1.727969 0.997643 0.000000)
    (-1.758128 1.015055 0.000000)
    (-1.788813 1.032772 0.000000)
    (-1.820033 1.050797 0.000000)
    (-1.851799 1.069137 0.000000)
    (-1.884119 1.087797 0.000000)
    (-1.917003 1.106782 0.000000)
    (-1.950461 1.126099 0.000000)
    (-1.984503 1.145753 0.000000)
    (-2.019139 1.165751 0.000000)
    (-2.054380 1.186097 0.000000)
    (-2.090236 1.206798 0.000000)
    (-2.126717 1.227861 0.000000)
    (-2.163835 1.249291 0.000000)
    (-2.201601 1.271095 0.000000)
    (-2.240027 1.293280 0.000000)
    (-2.279122 1.315852 0.000000)
    (-2.318901 1.338818 0.000000)
    (-2.359373 1.362185 0.000000)
    (-2.400552 1.385959 0.000000)
    (-2.442449 1.410149 0.000000)
    (-2.485078 1.434761 0.000000)
    (-2.528451 1.459802 0.000000)
    (-2.572581 1.485280 0.000000)
    (-2.617481 1.511203 0.000000)
    (-2.663164 1.537579 0.000000)
    (-2.709645 1.564414 0.000000)
    (-2.756938 1.591719 0.000000)
    (-2.805055 1.619499 0.000000)
    (-2.854013 1.647765 0.000000)
    (-2.903825 1.676524 0.000000)
    (-2.954506 1.705785 0.000000)
    (-3.006072 1.735556 0.000000)
    (-3.058538 1.765848 0.000000)
    (-3.111919 1.796667 0.000000)
    (-3.166232 1.828025 0.000000)
    (-3.221494 1.859930 0.000000)
    (-3.277719 1.892392 0.000000)
    (-3.334926 1.925421 0.000000)
    (-3.393132 1.959025 0.000000)
    (-3.452353 1.993217 0.000000)
    (-3.512608 2.028005 0.000000)
    (-3.573914 2.063400 0.000000)
    (-3.636291 2.099414 0.000000)
    (-3.699756 2.136055 0.000000)
    (-3.764329 2.173337 0.000000)
    (-3.830029 2.211268 0.000000)
    (-3.896876 2.249862 0.000000)
    (-3.964889 2.289130 0.000000)
    (-4.034089 2.329083 0.000000)
    (-4.104498 2.369733 0.000000)
    (-4.176135 2.411092 0.000000)
    (-4.249022 2.453174 0.000000)
    (-4.323181 2.495990 0.000000)
    (-4.398635 2.539553 0.000000)
    (-4.475406 2.583877 0.000000)
    (-4.553516 2.628974 0.000000)
    (-4.632990 2.674858 0.000000)
    (-4.713851 2.721543 0.000000)
    (-4.796123 2.769043 0.000000)
    (-4.879831 2.817372 0.000000)
    (-4.965001 2.866544 0.000000)
    (-5.051656 2.916575 0.000000)
    (-5.139824 2.967479 0.000000)
    (-5.229531 3.019271 0.000000)
    (-5.320804 3.071967 0.000000)
    (-5.413669 3.125583 0.000000)
    (-5.508156 3.180135 0.000000)
    (-5.604291 3.235639 0.000000)
    (-5.702104 3.292111 0.000000)
    (-5.801625 3.349570 0.000000)
    (-5.902882 3.408031 0.000000)
    (-6.005907 3.467512 0.000000)
    (-6.110730 3.528032 0.000000)
    (-6.217382 3.589607 0.000000)
    (-6.325896 3.652258 0.000000)
    (-6.436304 3.716002 0.000000)
    (-6.548638 3.780858 0.000000)
    (-6.662934 3.846847 0.000000)
    (-6.779224 3.913987 0.000000)
    (-6.897544 3.982299 0.000000)
    (-7.017928 4.051803 0.000000)
    (-7.140414 4.122520 0.000000)
    (-7.265038 4.194472 0.000000)
    (-7.391837 4.267679 0.000000)
    (-7.520849 4.342164 0.000000)
    (-7.652112 4.417949 0.000000)
    (-7.785667 4.495057 0.000000)
    (-7.921553 4.573510 0.000000)
    (-8.059810 4.653333 0.000000)
    (-8.200480 4.734549 0.000000)
    (-8.343605 4.817183 0.000000)
    (-8.489229 4.901258 0.000000)
    (-8.637394 4.986802 0.000000)
    (-8.788145 5.073838 0.000000)
    (-8.941527 5.162393 0.000000)
    (-9.097586 5.252494 0.000000)
    (-9.256369 5.344167 0.000000)
    (-9.417923 5.437440 0.000000)
    (-9.582296 5.532341 0.000000)
    (-9.749539 5.628899 0.000000)
    (-9.919701 5.727142 0.000000)
    (-10.092832 5.827099 0.000000)
    (-10.268985 5.928801 0.000000)
    (-10.448213 6.032279 0.000000)
    (-10.630569 6.137562 0.000000)
    (-10.816107 6.244682 0.000000)
    (-11.004884 6.353673 0.000000)
    (-11.196955 6.464565 0.000000)
    (-11.392379 6.577393 0.000000)
    (-11.591213 6.692190 0.000000)
    (-11.793518 6.808991 0.000000)
    (-11.999354 6.927830 0.000000)
    (-12.208782 7.048744 0.000000)
    (-12.421866 7.171767 0.000000)
    (-12.638668 7.296938 0.000000)
    (-12.859254 7.424294 0.000000)
    (-13.083691 7.553872 0.000000)
    (-13.312044 7.685712 0.000000)
    (-13.544383 7.819853 0.000000)
    (-13.780777 7.956336 0.000000)
    (-14.021297 8.095200 0.000000)
    (-14.266015 8.236488 0.000000)
    (-14.515004 8.380241 0.000000)
    (-14.768339 8.526504 0.000000)
    (-15.026095 8.675320 0.000000)
    (-15.288350 8.826733 0.000000)
    (-15.555182 8.980788 0.000000)
    (-0.087462 0.048481 0.000000)
    (-0.088988 0.049327 0.000000)
    (-0.090542 0.050188 0.000000)
    (-0.092122 0.051064 0.000000)
    (-0.093730 0.051955 0.000000)
    (-0.095366 0.052862 0.000000)
    (-0.097030 0.053785 0.000000)
    (-0.098724 0.054723 0.000000)
    (-0.100447 0.055678 0.000000)
    (-0.102200 0.056650 0.000000)
    (-0.103983 0.057639 0.000000)
    (-0.105798 0.058645 0.000000)
    (-0.107645 0.059668 0.000000)
    (-0.109524 0.060710 0.000000)
    (-0.111435 0.061769 0.000000)
    (-0.113380 0.062848 0.000000)
    (-0.115359 0.063944 0.000000)
    (-0.117372 0.065061 0.000000)
    (-0.119421 0.066196 0.000000)
    (-0.121505 0.067351 0.000000)
    (-0.123626 0.068527 0.000000)
    (-0.125783 0.069723 0.000000)
    (-0.127979 0.070940 0.000000)
    (-0.130212 0.072178 0.000000)
    (-0.132485 0.073438 0.000000)
    (-0.134797 0.074719 0.000000)
    (-0.137150 0.076023 0.000000)
    (-0.139544 0.077350 0.000000)
    (-0.141979 0.078700 0.000000)
    (-0.144457 0.080074 0.000000)
    (-0.146978 0.081471 0.000000)
    (-0.149544 0.082893 0.000000)
    (-0.152154 0.084340 0.000000)
    (-0.154809 0.085812 0.000000)
    (-0.157511 0.087310 0.000000)
    (-0.160260 0.088834 0.000000)
    (-0.163057 0.090384 0.000000)
    (-0.165903 0.091962 0.000000)
    (-0.168799 0.093567 0.000000)
    (-0.171745 0.095200 0.000000)
    (-0.174742 0.096861 0.000000)
    (-0.177792 0.098552 0.000000)
    (-0.180895 0.100272 0.000000)
    (-0.184053 0.102022 0.000000)
    (-0.187265 0.103803 0.000000)
    (-0.190533 0.105614 0.000000)
    (-0.193859 0.107458 0.000000)
    (-0.197242 0.109333 0.000000)
    (-0.200685 0.111241 0.000000)
    (-0.204187 0.113183 0.000000)
    (-0.207751 0.115158 0.000000)
    (-0.211377 0.117168 0.000000)
    (-0.215066 0.119213 0.000000)
    (-0.218820 0.121294 0.000000)
    (-0.222639 0.123411 0.000000)
    (-0.226525 0.125565 0.000000)
    (-0.230478 0.127756 0.000000)
    (-0.234501 0.129986 0.000000)
    (-0.238594 0.132255 0.000000)
    (-0.242758 0.134563 0.000000)
    (-0.246995 0.136912 0.000000)
    (-0.251306 0.139301 0.000000)
    (-0.255692 0.141732 0.000000)
    (-0.260155 0.144206 0.000000)
    (-0.264695 0.146723 0.000000)
    (-0.269315 0.149284 0.000000)
    (-0.274015 0.151889 0.000000)
    (-0.278798 0.154540 0.000000)
    (-0.283664 0.157237 0.000000)
    (-0.288615 0.159982 0.000000)
    (-0.293652 0.162774 0.000000)
    (-0.298777 0.165615 0.000000)
    (-0.303992 0.168505 0.000000)
    (-0.309297 0.171446 0.000000)
    (-0.314696 0.174439 0.000000)
    (-0.320188 0.177483 0.000000)
    (-0.325777 0.180581 0.000000)
    (-0.331462 0.183733 0.000000)
    (-0.337248 0.186939 0.000000)
    (-0.343134 0.190202 0.000000)
    (-0.349122 0.193522 0.000000)
    (-0.355216 0.196899 0.000000)
    (-0.361415 0.200336 0.000000)
    (-0.367723 0.203832 0.000000)
    (-0.374141 0.207390 0.000000)
    (-0.380671 0.211010 0.000000)
    (-0.387315 0.214692 0.000000)
    (-0.394075 0.218439 0.000000)
    (-0.400953 0.222252 0.000000)
    (-0.407951 0.226131 0.000000)
    (-0.415071 0.230078 0.000000)
    (-0.422316 0.234093 0.000000)
    (-0.429686 0.238179 0.000000)
    (-0.437186 0.242336 0.000000)
    (-0.444816 0.246566 0.000000)
    (-0.452580 0.250869 0.000000)
    (-0.460479 0.255247 0.000000)
    (-0.468516 0.259702 0.000000)
    (-0.476693 0.264235 0.000000)
    (-0.485012 0.268847 0.000000)
    (-0.493478 0.273539 0.000000)
    (-0.502090 0.278313 0.000000)
    (-0.510854 0.283171 0.000000)
    (-0.519770 0.288113 0.000000)
    (-0.528841 0.293142 0.000000)
    (-0.538071 0.298258 0.000000)
    (-0.547462 0.303463 0.000000)
    (-0.557017 0.308760 0.000000)
    (-0.566739 0.314149 0.000000)
    (-0.576631 0.319632 0.000000)
    (-0.586695 0.325210 0.000000)
    (-0.596935 0.330886 0.000000)
    (-0.607353 0.336661 0.000000)
    (-0.617953 0.342537 0.000000)
    (-0.628739 0.348516 0.000000)
    (-0.639712 0.354598 0.000000)
    (-0.650877 0.360787 0.000000)
    (-0.662237 0.367084 0.000000)
    (-0.673795 0.373491 0.000000)
    (-0.685555 0.380010 0.000000)
    (-0.697521 0.386642 0.000000)
    (-0.709695 0.393390 0.000000)
    (-0.722081 0.400256 0.000000)
    (-0.734684 0.407242 0.000000)
    (-0.747506 0.414350 0.000000)
    (-0.760553 0.421581 0.000000)
    (-0.773827 0.428939 0.000000)
    (-0.787333 0.436426 0.000000)
    (-0.801074 0.444043 0.000000)
    (-0.815056 0.451793 0.000000)
    (-0.829281 0.459678 0.000000)
    (-0.843755 0.467701 0.000000)
    (-0.858481 0.475864 0.000000)
    (-0.873465 0.484169 0.000000)
    (-0.888709 0.492620 0.000000)
    (-0.904220 0.501218 0.000000)
    (-0.920002 0.509965 0.000000)
    (-0.936059 0.518866 0.000000)
    (-0.952396 0.527922 0.000000)
    (-0.969019 0.537136 0.000000)
    (-0.985931 0.546511 0.000000)
    (-1.003139 0.556049 0.000000)
    (-1.020647 0.565754 0.000000)
    (-1.038461 0.575628 0.000000)
    (-1.056585 0.585675 0.000000)
    (-1.075026 0.595897 0.000000)
    (-1.093789 0.606297 0.000000)
    (-1.112879 0.616879 0.000000)
    (-1.132303 0.627646 0.000000)
    (-1.152065 0.638600 0.000000)
    (-1.172172 0.649746 0.000000)
    (-1.192631 0.661086 0.000000)
    (-1.213446 0.672624 0.000000)
    (-1.234625 0.684364 0.000000)
    (-1.256173 0.696308 0.000000)
    (-1.278097 0.708461 0.000000)
    (-1.300404 0.720826 0.000000)
    (-1.323101 0.733407 0.000000)
    (-1.346193 0.746207 0.000000)
    (-1.369689 0.759231 0.000000)
    (-1.393594 0.772482 0.000000)
    (-1.417917 0.785964 0.000000)
    (-1.442664 0.799682 0.000000)
    (-1.467843 0.813639 0.000000)
    (-1.493462 0.827840 0.000000)
    (-1.519528 0.842288 0.000000)
    (-1.546049 0.856989 0.000000)
    (-1.573032 0.871946 0.000000)
    (-1.600487 0.887164 0.000000)
    (-1.628421 0.902648 0.000000)
    (-1.656842 0.918403 0.000000)
    (-1.685759 0.934432 0.000000)
    (-1.715181 0.950741 0.000000)
    (-1.745117 0.967334 0.000000)
    (-1.775575 0.984217 0.000000)
    (-1.806565 1.001395 0.000000)
    (-1.838095 1.018873 0.000000)
    (-1.870176 1.036656 0.000000)
    (-1.902817 1.054749 0.000000)
    (-1.936027 1.073157 0.000000)
    (-1.969817 1.091888 0.000000)
    (-2.004197 1.110945 0.000000)
    (-2.039177 1.130334 0.000000)
    (-2.074767 1.150062 0.000000)
    (-2.110979 1.170135 0.000000)
    (-2.147822 1.190557 0.000000)
    (-2.185309 1.211336 0.000000)
    (-2.223450 1.232478 0.000000)
    (-2.262256 1.253989 0.000000)
    (-2.301740 1.275875 0.000000)
    (-2.341913 1.298144 0.000000)
    (-2.382787 1.320800 0.000000)
    (-2.424375 1.343853 0.000000)
    (-2.466688 1.367307 0.000000)
    (-2.509740 1.391171 0.000000)
    (-2.553543 1.415452 0.000000)
    (-2.598111 1.440156 0.000000)
    (-2.643456 1.465292 0.000000)
    (-2.689593 1.490866 0.000000)
    (-2.736535 1.516886 0.000000)
    (-2.784297 1.543361 0.000000)
    (-2.832892 1.570298 0.000000)
    (-2.882335 1.597705 0.000000)
    (-2.932642 1.625590 0.000000)
    (-2.983826 1.653962 0.000000)
    (-3.035904 1.682829 0.000000)
    (-3.088890 1.712200 0.000000)
    (-3.142801 1.742083 0.000000)
    (-3.197654 1.772488 0.000000)
    (-3.253463 1.803424 0.000000)
    (-3.310247 1.834900 0.000000)
    (-3.368022 1.866925 0.000000)
    (-3.426805 1.899509 0.000000)
    (-3.486614 1.932661 0.000000)
    (-3.547467 1.966393 0.000000)
    (-3.609381 2.000713 0.000000)
    (-3.672377 2.035632 0.000000)
    (-3.736472 2.071160 0.000000)
    (-3.801686 2.107309 0.000000)
    (-3.868038 2.144088 0.000000)
    (-3.935548 2.181510 0.000000)
    (-4.004236 2.219584 0.000000)
    (-4.074123 2.258323 0.000000)
    (-4.145230 2.297739 0.000000)
    (-4.217578 2.337842 0.000000)
    (-4.291189 2.378645 0.000000)
    (-4.366084 2.420160 0.000000)
    (-4.442286 2.462400 0.000000)
    (-4.519819 2.505377 0.000000)
    (-4.598705 2.549104 0.000000)
    (-4.678967 2.593594 0.000000)
    (-4.760631 2.638861 0.000000)
    (-4.843719 2.684917 0.000000)
    (-4.928258 2.731778 0.000000)
    (-5.014273 2.779457 0.000000)
    (-5.101788 2.827967 0.000000)
    (-5.190831 2.877325 0.000000)
    (-5.281428 2.927543 0.000000)
    (-5.373606 2.978639 0.000000)
    (-5.467394 3.030626 0.000000)
    (-5.562818 3.083520 0.000000)
    (-5.659907 3.137338 0.000000)
    (-5.758691 3.192095 0.000000)
    (-5.859199 3.247807 0.000000)
    (-5.961462 3.304492 0.000000)
    (-6.065509 3.362166 0.000000)
    (-6.171372 3.420847 0.000000)
    (-6.279083 3.480552 0.000000)
    (-6.388673 3.541299 0.000000)
    (-6.500177 3.603107 0.000000)
    (-6.613626 3.665993 0.000000)
    (-6.729056 3.729976 0.000000)
    (-6.846500 3.795077 0.000000)
    (-6.965994 3.861313 0.000000)
    (-7.087573 3.928706 0.000000)
    (-7.211275 3.997275 0.000000)
    (-7.337135 4.067041 0.000000)
    (-7.465192 4.138024 0.000000)
    (-7.595485 4.210246 0.000000)
    (-7.728051 4.283729 0.000000)
    (-7.862931 4.358494 0.000000)
    (-8.000165 4.434564 0.000000)
    (-8.139794 4.511962 0.000000)
    (-8.281860 4.590710 0.000000)
    (-8.426406 4.670833 0.000000)
    (-8.573475 4.752355 0.000000)
    (-8.723110 4.835299 0.000000)
    (-8.875357 4.919691 0.000000)
    (-9.030261 5.005555 0.000000)
    (-9.187869 5.092919 0.000000)
    (-9.348227 5.181807 0.000000)
    (-9.511385 5.272247 0.000000)
    (-9.677390 5.364265 0.000000)
    (-9.846292 5.457889 0.000000)
    (-10.018142 5.553147 0.000000)
    (-10.192992 5.650068 0.000000)
    (-10.370893 5.748680 0.000000)
    (-10.551899 5.849013 0.000000)
    (-10.736065 5.951098 0.000000)
    (-10.923444 6.054964 0.000000)
    (-11.114094 6.160643 0.000000)
    (-11.308072 6.268167 0.000000)
    (-11.505435 6.377567 0.000000)
    (-11.706243 6.488876 0.000000)
    (-11.910555 6.602129 0.000000)
    (-12.118434 6.717357 0.000000)
    (-12.329940 6.834597 0.000000)
    (-12.545138 6.953884 0.000000)
    (-12.764092 7.075252 0.000000)
    (-12.986868 7.198738 0.000000)
    (-13.213531 7.324380 0.000000)
    (-13.444151 7.452215 0.000000)
    (-13.678796 7.582280 0.000000)
    (-13.917536 7.714616 0.000000)
    (-14.160443 7.849261 0.000000)
    (-14.407589 7.986257 0.000000)
    (-14.659049 8.125643 0.000000)
    (-14.914897 8.267463 0.000000)
    (-15.175211 8.411757 0.000000)
    (-15.440069 8.558570 0.000000)
    (-15.709549 8.707945 0.000000)
    (-0.088295 0.046947 0.000000)
    (-0.089836 0.047767 0.000000)
    (-0.091404 0.048600 0.000000)
    (-0.092999 0.049448 0.000000)
    (-0.094622 0.050311 0.000000)
    (-0.096274 0.051190 0.000000)
    (-0.097954 0.052083 0.000000)
    (-0.099664 0.052992 0.000000)
    (-0.101403 0.053917 0.000000)
    (-0.103173 0.054858 0.000000)
    (-0.104974 0.055815 0.000000)
    (-0.106806 0.056790 0.000000)
    (-0.108670 0.057781 0.000000)
    (-0.110566 0.058789 0.000000)
    (-0.112496 0.059815 0.000000)
    (-0.114460 0.060859 0.000000)
    (-0.116457 0.061921 0.000000)
    (-0.118490 0.063002 0.000000)
    (-0.120558 0.064102 0.000000)
    (-0.122662 0.065221 0.000000)
    (-0.124803 0.066359 0.000000)
    (-0.126981 0.067517 0.000000)
    (-0.129197 0.068695 0.000000)
    (-0.131452 0.069894 0.000000)
    (-0.133747 0.071114 0.000000)
    (-0.136081 0.072355 0.000000)
    (-0.138456 0.073618 0.000000)
    (-0.140872 0.074903 0.000000)
    (-0.143331 0.076210 0.000000)
    (-0.145833 0.077541 0.000000)
    (-0.148378 0.078894 0.000000)
    (-0.150968 0.080271 0.000000)
    (-0.153603 0.081672 0.000000)
    (-0.156283 0.083097 0.000000)
    (-0.159011 0.084548 0.000000)
    (-0.161786 0.086023 0.000000)
    (-0.164610 0.087525 0.000000)
    (-0.167483 0.089052 0.000000)
    (-0.170406 0.090607 0.000000)
    (-0.173380 0.092188 0.000000)
    (-0.176406 0.093797 0.000000)
    (-0.179485 0.095434 0.000000)
    (-0.182618 0.097100 0.000000)
    (-0.185805 0.098794 0.000000)
    (-0.189048 0.100519 0.000000)
    (-0.192348 0.102273 0.000000)
    (-0.195705 0.104058 0.000000)
    (-0.199120 0.105874 0.000000)
    (-0.202596 0.107722 0.000000)
    (-0.206132 0.109602 0.000000)
    (-0.209729 0.111515 0.000000)
    (-0.213390 0.113461 0.000000)
    (-0.217114 0.115442 0.000000)
    (-0.220903 0.117456 0.000000)
    (-0.224759 0.119506 0.000000)
    (-0.228682 0.121592 0.000000)
    (-0.232673 0.123714 0.000000)
    (-0.236734 0.125874 0.000000)
    (-0.240866 0.128071 0.000000)
    (-0.245070 0.130306 0.000000)
    (-0.249347 0.132580 0.000000)
    (-0.253699 0.134894 0.000000)
    (-0.258127 0.137248 0.000000)
    (-0.262632 0.139644 0.000000)
    (-0.267216 0.142081 0.000000)
    (-0.271879 0.144561 0.000000)
    (-0.276625 0.147084 0.000000)
    (-0.281453 0.149651 0.000000)
    (-0.286365 0.152263 0.000000)
    (-0.291363 0.154920 0.000000)
    (-0.296448 0.157624 0.000000)
    (-0.301622 0.160375 0.000000)
    (-0.306886 0.163174 0.000000)
    (-0.312243 0.166022 0.000000)
    (-0.317692 0.168920 0.000000)
    (-0.323237 0.171868 0.000000)
    (-0.328879 0.174868 0.000000)
    (-0.334619 0.177920 0.000000)
    (-0.340459 0.181025 0.000000)
    (-0.346401 0.184185 0.000000)
    (-0.352447 0.187399 0.000000)
    (-0.358598 0.190670 0.000000)
    (-0.364857 0.193998 0.000000)
    (-0.371225 0.197384 0.000000)
    (-0.377704 0.200829 0.000000)
    (-0.384296 0.204334 0.000000)
    (-0.391003 0.207900 0.000000)
    (-0.397828 0.211529 0.000000)
    (-0.404771 0.215221 0.000000)
    (-0.411836 0.218977 0.000000)
    (-0.419023 0.222799 0.000000)
    (-0.426337 0.226687 0.000000)
    (-0.433778 0.230644 0.000000)
    (-0.441349 0.234669 0.000000)
    (-0.449052 0.238765 0.000000)
    (-0.456889 0.242932 0.000000)
    (-0.464863 0.247172 0.000000)
    (-0.472977 0.251486 0.000000)
    (-0.481232 0.255875 0.000000)
    (-0.489631 0.260341 0.000000)
    (-0.498176 0.264885 0.000000)
    (-0.506871 0.269508 0.000000)
    (-0.515718 0.274212 0.000000)
    (-0.524719 0.278998 0.000000)
    (-0.533877 0.283867 0.000000)
    (-0.543195 0.288822 0.000000)
    (-0.552675 0.293863 0.000000)
    (-0.562321 0.298991 0.000000)
    (-0.572136 0.304210 0.000000)
    (-0.582121 0.309519 0.000000)
    (-0.592281 0.314921 0.000000)
    (-0.602618 0.320418 0.000000)
    (-0.613136 0.326010 0.000000)
    (-0.623837 0.331700 0.000000)
    (-0.634725 0.337489 0.000000)
    (-0.645803 0.343380 0.000000)
    (-0.657075 0.349373 0.000000)
    (-0.668543 0.355471 0.000000)
    (-0.680211 0.361675 0.000000)
    (-0.692083 0.367987 0.000000)
    (-0.704162 0.374410 0.000000)
    (-0.716452 0.380944 0.000000)
    (-0.728957 0.387593 0.000000)
    (-0.741679 0.394358 0.000000)
    (-0.754624 0.401241 0.000000)
    (-0.767795 0.408244 0.000000)
    (-0.781195 0.415369 0.000000)
    (-0.794830 0.422618 0.000000)
    (-0.808702 0.429995 0.000000)
    (-0.822817 0.437499 0.000000)
    (-0.837177 0.445135 0.000000)
    (-0.851789 0.452904 0.000000)
    (-0.866655 0.460809 0.000000)
    (-0.881781 0.468852 0.000000)
    (-0.897171 0.477035 0.000000)
    (-0.912830 0.485360 0.000000)
    (-0.928762 0.493831 0.000000)
    (-0.944972 0.502450 0.000000)
    (-0.961465 0.511220 0.000000)
    (-0.978245 0.520142 0.000000)
    (-0.995319 0.529221 0.000000)
    (-1.012691 0.538457 0.000000)
    (-1.030365 0.547855 0.000000)
    (-1.048349 0.557417 0.000000)
    (-1.066646 0.567146 0.000000)
    (-1.085262 0.577044 0.000000)
    (-1.104204 0.587116 0.000000)
    (-1.123476 0.597363 0.000000)
    (-1.143084 0.607789 0.000000)
    (-1.163035 0.618397 0.000000)
    (-1.183333 0.629190 0.000000)
    (-1.203987 0.640171 0.000000)
    (-1.225000 0.651344 0.000000)
    (-1.246380 0.662712 0.000000)
    (-1.268134 0.674279 0.000000)
    (-1.290267 0.686047 0.000000)
    (-1.312786 0.698021 0.000000)
    (-1.335699 0.710204 0.000000)
    (-1.359011 0.722599 0.000000)
    (-1.382730 0.735211 0.000000)
    (-1.406864 0.748043 0.000000)
    (-1.431418 0.761098 0.000000)
    (-1.456401 0.774382 0.000000)
    (-1.481820 0.787898 0.000000)
    (-1.507683 0.801649 0.000000)
    (-1.533997 0.815640 0.000000)
    (-1.560770 0.829876 0.000000)
    (-1.588010 0.844360 0.000000)
    (-1.615726 0.859097 0.000000)
    (-1.643926 0.874091 0.000000)
    (-1.672618 0.889347 0.000000)
    (-1.701811 0.904869 0.000000)
    (-1.731513 0.920662 0.000000)
    (-1.761734 0.936730 0.000000)
    (-1.792482 0.953079 0.000000)
    (-1.823766 0.969714 0.000000)
    (-1.855597 0.986638 0.000000)
    (-1.887983 1.003859 0.000000)
    (-1.920935 1.021379 0.000000)
    (-1.954461 1.039206 0.000000)
    (-1.988573 1.057343 0.000000)
    (-2.023280 1.075797 0.000000)
    (-2.058593 1.094573 0.000000)
    (-2.094523 1.113677 0.000000)
    (-2.131079 1.133115 0.000000)
    (-2.168273 1.152891 0.000000)
    (-2.206117 1.173013 0.000000)
    (-2.244621 1.193486 0.000000)
    (-2.283797 1.214316 0.000000)
    (-2.323657 1.235510 0.000000)
    (-2.364212 1.257074 0.000000)
    (-2.405475 1.279014 0.000000)
    (-2.447459 1.301337 0.000000)
    (-2.490175 1.324050 0.000000)
    (-2.533637 1.347159 0.000000)
    (-2.577857 1.370671 0.000000)
    (-2.622849 1.394594 0.000000)
    (-2.668626 1.418934 0.000000)
    (-2.715203 1.443699 0.000000)
    (-2.762592 1.468896 0.000000)
    (-2.810808 1.494533 0.000000)
    (-2.859866 1.520618 0.000000)
    (-2.909780 1.547158 0.000000)
    (-2.960566 1.574161 0.000000)
    (-3.012237 1.601635 0.000000)
    (-3.064811 1.629589 0.000000)
    (-3.118302 1.658030 0.000000)
    (-3.172726 1.686968 0.000000)
    (-3.228101 1.716412 0.000000)
    (-3.284442 1.746369 0.000000)
    (-3.341766 1.776849 0.000000)
    (-3.400091 1.807860 0.000000)
    (-3.459434 1.839414 0.000000)
    (-3.519812 1.871517 0.000000)
    (-3.581244 1.904181 0.000000)
    (-3.643749 1.937416 0.000000)
    (-3.707344 1.971230 0.000000)
    (-3.772050 2.005634 0.000000)
    (-3.837884 2.040639 0.000000)
    (-3.904868 2.076255 0.000000)
    (-3.973021 2.112493 0.000000)
    (-4.042363 2.149363 0.000000)
    (-4.112916 2.186876 0.000000)
    (-4.184700 2.225044 0.000000)
    (-4.257737 2.263879 0.000000)
    (-4.332048 2.303391 0.000000)
    (-4.407657 2.343593 0.000000)
    (-4.484585 2.384496 0.000000)
    (-4.562855 2.426113 0.000000)
    (-4.642492 2.468457 0.000000)
    (-4.723519 2.511540 0.000000)
    (-4.805960 2.555374 0.000000)
    (-4.889840 2.599974 0.000000)
    (-4.975184 2.645352 0.000000)
    (-5.062017 2.691522 0.000000)
    (-5.150366 2.738498 0.000000)
    (-5.240257 2.786294 0.000000)
    (-5.331716 2.834924 0.000000)
    (-5.424772 2.884403 0.000000)
    (-5.519453 2.934745 0.000000)
    (-5.615785 2.985966 0.000000)
    (-5.713799 3.038081 0.000000)
    (-5.813524 3.091105 0.000000)
    (-5.914989 3.145055 0.000000)
    (-6.018225 3.199947 0.000000)
    (-6.123263 3.255797 0.000000)
    (-6.230134 3.312621 0.000000)
    (-6.338870 3.370437 0.000000)
    (-6.449504 3.429262 0.000000)
    (-6.562069 3.489114 0.000000)
    (-6.676599 3.550011 0.000000)
    (-6.793128 3.611970 0.000000)
    (-6.911690 3.675011 0.000000)
    (-7.032322 3.739152 0.000000)
    (-7.155059 3.804412 0.000000)
    (-7.279939 3.870812 0.000000)
    (-7.406997 3.938370 0.000000)
    (-7.536274 4.007108 0.000000)
    (-7.667807 4.077045 0.000000)
    (-7.801635 4.148203 0.000000)
    (-7.937799 4.220603 0.000000)
    (-8.076340 4.294266 0.000000)
    (-8.217299 4.369215 0.000000)
    (-8.360718 4.445473 0.000000)
    (-8.506640 4.523061 0.000000)
    (-8.655109 4.602003 0.000000)
    (-8.806169 4.682323 0.000000)
    (-8.959866 4.764045 0.000000)
    (-9.116245 4.847193 0.000000)
    (-9.275353 4.931793 0.000000)
    (-9.437239 5.017869 0.000000)
    (-9.601950 5.105447 0.000000)
    (-9.769535 5.194554 0.000000)
    (-9.940046 5.285216 0.000000)