/*--------------------------------*- C++ -*----------------------------------*\
| =========                 |                                                 |
| \\      /  F ield         | OpenFOAM: The Open Source CFD Toolbox           |
|  \\    /   O peration     | Version:  2.1.1                                 |
|   \\  /    A nd           | Web:      www.OpenFOAM.org                      |
|    \\/     M anipulation  |                                                 |
\*---------------------------------------------------------------------------*/
FoamFile
{
    version     2.0;
    format      ascii;
    class       dictionary;
    location    "constant";
    object      thermophysicalProperties;
}
// * * * * * * * * * * * * * * * * * * * * * * * * * * * * * * * * * * * * * //

Cv              Cv [0 2 -2 -1 0 0 0] 717.625;

R               R [0 2 -2 -1 0 0 0] 1;

gamma           gamma [0 0 0 0 0 0 0] 1.4;

Pr              Pr [0 2 -2 -1 0 0 0] 0.72;

nu              nu [0 2 -2 -1 0 0 0] 0.0;

Ea              Ea [0 0 0 0 0 0 0]  31.0;

Q               Q [0 0 0 0 0 0 0]   0.5196e10;

kk               kk [0 0 0 0 0 0 0] 500.0;
// ************************************************************************* //
