/*--------------------------------*- C++ -*----------------------------------*\
| =========                 |                                                 |
| \\      /  F ield         | OpenFOAM: The Open Source CFD Toolbox           |
|  \\    /   O peration     | Version:  2.1.1                                 |
|   \\  /    A nd           | Web:      www.OpenFOAM.org                      |
|    \\/     M anipulation  |                                                 |
\*---------------------------------------------------------------------------*/
FoamFile
{
    version     2.0;
    format      ascii;
    class       dictionary;
    location    "constant";
    object      thermophysicalProperties;
}
// * * * * * * * * * * * * * * * * * * * * * * * * * * * * * * * * * * * * * //

/*
Cv              Cv [0 2 -2 -1 0 0 0] 717.625;

R               R [0 2 -2 -1 0 0 0] 1;

gamma           gamma [0 0 0 0 0 0 0] 1.4;

Pr              Pr [0 2 -2 -1 0 0 0] 0.72;

nu              nu [0 2 -2 -1 0 0 0] 0.0;

Ea              Ea [0 0 0 0 0 0 0]  31.0;

Q               Q [0 0 0 0 0 0 0]   0.5196e10;

kk               kk [0 0 0 0 0 0 0] 500.0;*/

/*
gamma           gamma [0 0 0 0 0 0 0] 1.4;

Pr              Pr [0 0 0 0 0 0 0] 0.682;

nu0              nu0 [0 2 -2 -1 0 0 0] 1.782e-5;

T0              T0 [0 0 0 1 0 0 0] 300.0;

Sc0              Sc0 [-1 5 -2 -1 0 0 0] 1.241;
Sc1              Sc1 [-1 5 -2 -1 0 0 0] 0.5;
Sc2              Sc2 [-1 5 -2 -1 0 0 0] 0.941;
Sc3              Sc3 [-1 5 -2 -1 0 0 0] 0.537;
Sc4              Sc4 [-1 5 -2 -1 0 0 0] 0.690;*/

gamma           gamma [0 0 0 0 0 0 0] 1.4;

Pr              Pr [0 0 0 0 0 0 0] 0.75;

nu0              nu0 [0 0 0 0 0 0 0] 6.45e-4;
nu1              nu1 [0 0 0 0 0 0 0] 0.0;
nu2              nu2 [0 0 0 0 0 0 0] 2.21e-5;

k0               k0 [0 0 0 0 0 0 0] 44.0;
k1              k1 [0 0 0 0 0 0 0] 0.0;
k2              k2 [0 0 0 0 0 0 0] 0.018;


T0              T0 [0 0 0 0 0 0 0] 300.0;

g               g  [0 0 0 0 0 0 0] (0.0 0.0 0.0);

sigma              sigma [0 1 0 0 0 0 0] 0.00;

//Sc0              Sc0 [0 0 0 0 0 0 0] 0.8;
//Sc1              Sc1 [0 0 0 0 0 0 0] 0.8;
//Sc2              Sc2 [0 0 0 0 0 0 0] 0.21;
//Sc3              Sc3 [0 0 0 0 0 0 0] 1.0;
//Sc4              Sc4 [0 0 0 0 0 0 0] 0.53;
//Sc5              Sc5 [0 0 0 0 0 0 0] 0.6;
//Sc6              Sc6 [0 0 0 0 0 0 0] 0.8;
//Sc7              Sc7 [0 0 0 0 0 0 0] 0.82;
//Sc8              Sc8 [0 0 0 0 0 0 0] 1.0;

/*
Sc0              Sc0 [0 0 0 0 0 0 0] 1.0;
Sc1              Sc1 [0 0 0 0 0 0 0] 1.0;
Sc2              Sc2 [0 0 0 0 0 0 0] 1.0;
Sc3              Sc3 [0 0 0 0 0 0 0] 1.0;
Sc4              Sc4 [0 0 0 0 0 0 0] 1.0;*/
// ************************************************************************* //
